Circuit: * C:\Users\mpier\OneDrive\Escritorio\IOT_LIGHT_SWITCH\Sim\simRcyBJT.asc

Limiting rise time of source v1 to 0.0001
Limiting fall time of source v1 to 0.0001
.OP point found by inspection.

Date: Thu Mar 19 19:47:56 2020
Total elapsed time: 0.104 seconds.

tnom = 27
temp = 27
method = modified trap
totiter = 31161
traniter = 31161
tranpoints = 12936
accept = 10062
rejected = 2874
matrix size = 10
fillins = 0
solver = Normal
Matrix Compiler1: 524 bytes object code size  0.1/0.1/[0.1]
Matrix Compiler2: 734 bytes object code size  0.1/0.1/[0.1]

